Circuit: * \\brindfs01\eiem$\BRSILUC\EIEM\Projetos\Hw\Active\HighVoltageProbe\6.Simulacoes\DiffAmp\Draft1.asc

Direct Newton iteration for .op point succeeded.

Date: Mon Apr 17 13:55:36 2023
Total elapsed time: 18.918 seconds.

tnom = 27
temp = 27
method = modified trap
totiter = 1204340
traniter = 1204330
tranpoints = 404483
accept = 300116
rejected = 104367
matrix size = 30
fillins = 2
solver = Normal
Matrix Compiler1: 2.61 KB object code size  0.7/0.4/[0.3]
Matrix Compiler2: 2.78 KB object code size  0.3/0.5/[0.3]

