Circuit: * \\brindfs01\eiem$\BRSILUC\EIEM\Projetos\Hw\Active\HighVoltageProbe\6.Simulacoes\DiffAmp\InputCircuit_Test3.asc

WARNING: Less than two connections to node N001.  This node is used by V1.
WARNING: Less than two connections to node N002.  This node is used by V4.
WARNING: Less than two connections to node NC_01.  This node is used by R31.
WARNING: Less than two connections to node VOUTG.  This node is used by E1.
Direct Newton iteration for .op point succeeded.

Date: Tue Apr 18 14:37:56 2023
Total elapsed time: 2.803 seconds.

tnom = 27
temp = 27
method = modified trap
totiter = 80923
traniter = 80918
tranpoints = 40454
accept = 24385
rejected = 16069
matrix size = 64
fillins = 100
solver = Normal
Thread vector: 17.4/5.9[6] 5.5/3.4[6] 2.6/3.8[1] 0.5/1.6[1]  2592/500
Matrix Compiler1: 7.69 KB object code size  3.6/1.0/[0.7]
Matrix Compiler2: 7.40 KB object code size  1.0/0.9/[0.6]

