Circuit: * \\brindfs01\eiem$\BRSILUC\EIEM\Projetos\Hw\Active\HighVoltageProbe\6.Simulacoes\NegativePowerSupply\Draft1.asc

Direct Newton iteration for .op point succeeded.

Date: Wed Apr 19 10:51:23 2023
Total elapsed time: 0.268 seconds.

tnom = 27
temp = 27
method = modified trap
totiter = 2127
traniter = 2082
tranpoints = 1042
accept = 1042
rejected = 0
matrix size = 23
fillins = 11
solver = Normal
Matrix Compiler1: 2.20 KB object code size  0.9/0.5/[0.3]
Matrix Compiler2: off  [0.3]/0.5/0.4

